/*--------------------------------*- C++ -*----------------------------------*\
| =========                 |                                                 |
| \\      /  F ield         | OpenFOAM: The Open Source CFD Toolbox           |
|  \\    /   O peration     | Version:  dev                                   |
|   \\  /    A nd           | Web:      www.OpenFOAM.org                      |
|    \\/     M anipulation  |                                                 |
\*---------------------------------------------------------------------------*/
FoamFile
{
    version     2.0;
    format      ascii;
    class       dictionary;
    location    "system";
    object      momentGenerationDict;
}
// * * * * * * * * * * * * * * * * * * * * * * * * * * * * * * * * * * * * * //

phases
(
    particles
);

boundaries
{
    top
    {
        type    cyclic;
    }
    bottom
    {
        type    cyclic;
    }
    left
    {
        type    cyclic;
    }
    right
    {
        type    cyclic;
    }
}

particles
{
    type                weightsAndAbscissae;
    weightDimension     [0 0 0 0 0 0 0];
    abscissaDimension   [0 1 -1 0 0 0 0];

    internal
    {
        node0
        {
            weight  0;
            abscissa (0 0);
        }
//         node0
//         {
//             weight  0.0001;
//             abscissa (0.001 0.001);
//         }
//         node1
//         {
//             weight  0.0001;
//             abscissa (-0.001 0.001);
//         }
//         node2
//         {
//             weight  0.0001;
//             abscissa (0.001 -0.001);
//         }
//         node3
//         {
//             weight  0.0001;
//             abscissa (-0.001 -0.001);
//         }
    }
}


// ************************************************************************* //
