/*--------------------------------*- C++ -*----------------------------------*\
  =========                 |
  \\      /  F ield         | OpenFOAM: The Open Source CFD Toolbox
   \\    /   O peration     | Website:  https://openfoam.org
    \\  /    A nd           | Version:  dev
     \\/     M anipulation  |
\*---------------------------------------------------------------------------*/
FoamFile
{
    version     2.0;
    format      ascii;
    class       dictionary;
    location    "constant";
    object      populationaBalanceProperties;
}
// * * * * * * * * * * * * * * * * * * * * * * * * * * * * * * * * * * * * * //

populationBalanceModel velocity;

velocityCoeffs
{
    odeCoeffs
    {
        solveODESource on;

        ATol    1.0e-6;
        RTol    1.0e-4;
        fac     0.7;
        facMin  0.1;
        facMax  5.0;
        minLocalDt 1.0e-10;
    }

    collision  on;

    collisionKernel
    {
        collisionKernel esBGK;
        frictionalPressure on;
        e           0.9;
        d           90.0e-6;
        rho         1470;
    }
}

// ************************************************************************* //
