/*--------------------------------*- C++ -*----------------------------------*\
| =========                 |                                                 |
| \\      /  F ield         | OpenFOAM: The Open Source CFD Toolbox           |
|  \\    /   O peration     | Version:  dev                                   |
|   \\  /    A nd           | Web:      www.OpenFOAM.org                      |
|    \\/     M anipulation  |                                                 |
\*---------------------------------------------------------------------------*/
FoamFile
{
    version     2.0;
    format      ascii;
    class       dictionary;
    location    "constant";
    object      phaseProperties;
}
// * * * * * * * * * * * * * * * * * * * * * * * * * * * * * * * * * * * * * //

dilutePhase particles;
residualAlpha   1e-6;
mu      mu      [1 -1 -1 0 0 0 0]   1.4e-5;
rhop    rhop    [1 -3 0 0 0 0 0]    1000;
rhof    rhof    [1 -3 0 0 0 0 0]    1.4;
d       d       [0 1 0 0 0 0 0]     5e-4;
e       0.9;
