/*--------------------------------*- C++ -*----------------------------------*\
| =========                 |                                                 |
| \\      /  F ield         | OpenFOAM: The Open Source CFD Toolbox           |
|  \\    /   O peration     | Version:  dev                                   |
|   \\  /    A nd           | Web:      www.OpenFOAM.org                      |
|    \\/     M anipulation  |                                                 |
\*---------------------------------------------------------------------------*/
FoamFile
{
    version     2.0;
    format      ascii;
    class       dictionary;
    object      blockMeshDict;
}
// * * * * * * * * * * * * * * * * * * * * * * * * * * * * * * * * * * * * * //

convertToMeters 1;

l 0.06;
h #calc "$l/5";
w $h;

vertices
(
    (0  0  0)
    ($l 0  0)
    ($l $h 0)
    (0  $h 0)
    (0  0  $w)
    ($l 0  $w)
    ($l $h $w)
    (0  $h $w)
);

blocks
(
    hex (0 1 2 3 4 5 6 7) (1200 1 1) simpleGrading (1 1 1)
);

edges
(
);

boundary
(
    walls
    {
        type patch;
        faces
        (
            (0 4 7 3)
            (2 6 5 1)
        );
    }
    frontAndBack
    {
        type empty;
        faces
        (
//             (3 7 6 2)
//             (1 5 4 0) //walls
            (3 7 6 2)
            (1 5 4 0)
            (0 3 2 1)
            (4 5 6 7)
        );
    }
);

mergePatchPairs
(
);

// ************************************************************************* //
